/*--------------------------------*- C++ -*----------------------------------*\
| =========                 |                                                 |
| \\      /  F ield         | OpenFOAM: The Open Source CFD Toolbox           |
|  \\    /   O peration     | Version:  1.6                                   |
|   \\  /    A nd           | Web:      www.OpenFOAM.org                      |
|    \\/     M anipulation  |                                                 |
\*---------------------------------------------------------------------------*/
FoamFile
{
    version     2.0;
    format      ascii;
    class       dictionary;
    location    "system";
    object      fvSchemes;
}
// * * * * * * * * * * * * * * * * * * * * * * * * * * * * * * * * * * * * * //

ddtSchemes
{
    default         Euler;
}

gradSchemes
{
    default         Gauss linear;
    //grad(phiE)      Gauss volWeighted "kappa";
}

divSchemes
{
    default         Gauss linear;
    div(phi,U)      Gauss limitedLinearV 1;
    div((nuEff*dev(grad(U).T()))) Gauss limitedLinearV 1;
    div(U)          Gauss limitedLinearV 1;
    div(phi,Ci_h)   Gauss limitedLinear 1;
    div(zmuFEf,Ci)   Gauss limitedLinear 1;
}

laplacianSchemes
{
    default         Gauss linear corrected;
    laplacian(kappa,phiE) Gauss harmonic uncorrected;
}

interpolationSchemes
{
    default         linear;
    interpolate(U)  linear;
    //interpolate(D)  harmonic;
    //interpolate(t)  harmonic;
    interpolate(kappa)  harmonic;
}

snGradSchemes
{
    default         corrected;
}

fluxRequired
{
    default         no;
    p;
    Yi_h;
}


// ************************************************************************* //
