/*---------------------------------------------------------------------------*\
| =========                 |                                                 |
| \\      /  F ield         | OpenFOAM: The Open Source CFD Toolbox           |
|  \\    /   O peration     | Version:  1.2-devel                             |
|   \\  /    A nd           | Web:      http://www.openfoam.org               |
|    \\/     M anipulation  |                                                 |
\*---------------------------------------------------------------------------*/
FoamFile
{
    version     2.0;
    format      ascii;
    class       volScalarField;
    location    "0";
    object 	C_H2O;
}
// * * * * * * * * * * * * * * * * * * * * * * * * * * * * * * * * * * * * * //

dimensions      [0 -3 0 0 1 0 0];

internalField   uniform 49805.49;

boundaryField
{
    inlet
    {
        type 		    calculated;
        value           uniform 0.0;
        //type            fixedValue;
        //value           uniform 49805.49;
    }
    outlet
    {
        type 		    calculated;
        value           uniform 0.0;
    }
    
    currentCollector
    {
        type            calculated;
        value           uniform 0.0;
    }

    separator
    {
        type            calculated;
        value           uniform 0.0;
    }    
 
    frontAndBack 
    {
        type            empty;
    }
    wall 
    {
        type            zeroGradient;
    }    
}


// ************************************************************************* //
