// -*- C++ -*-
// File generated by PyFoam - sorry for the ugliness

FoamFile
{
 version 2.0;
 format ascii;
 class dictionary;
 location "system";
 object fvOptions;
}

momentumSource
{
  type pressureGradientExplicitSource;
  active yes;
  selectionMode all; 	//cellSet // points //cellZone
  pressureGradientExplicitSourceCoeffs
  {
    fieldNames
      (
        U
      );
    Ubar "(0 0.05 0)";
  }
}



// ************************************************************************* //