/*---------------------------------------------------------------------------*\
| =========                 |                                                 |
| \\      /  F ield         | OpenFOAM: The Open Source CFD Toolbox           |
|  \\    /   O peration     | Version:  1.2-devel                             |
|   \\  /    A nd           | Web:      http://www.openfoam.org               |
|    \\/     M anipulation  |                                                 |
\*---------------------------------------------------------------------------*/
FoamFile
{
    version     2.0;
    format      ascii;
    class       volVectorField;
    location    "0";
    object 	N_K+;
}
// * * * * * * * * * * * * * * * * * * * * * * * * * * * * * * * * * * * * * //

dimensions      [0 -2 -1 0 1 0 0];

internalField   uniform (0.0 0.0 0.0);

boundaryField
{
    topAndBottom 
    {
        type            empty;
    }
    
    currentCollector
    {
        type            fixedValue;
        value           uniform (0.0 0.0 0.0);
    }

    separator 
    {
        type            calculated;
        //type            zeroGradient;
        //type            fixedValue;
        //value           uniform (0.0 0.0 0.0);
    }

    frontAndBack 
    {
        type            empty;
    }
//    wall 
//    {
//        type            fixedValue;
//        value           uniform (0.0 0.0 0.0);
//    }    
}

// ************************************************************************* //
